IEEE13Nodeckt_Curr_Elem.Txt

CIRCUIT ELEMENT CURRENTS

(Currents into element from indicated bus)

Power Delivery Elements

  Bus     Phase    Magnitude, A     Angle      (Real)   +j  (Imag)

ELEMENT = "Vsource.SOURCE"
SOURCEBUS     1           17.976 /_  179.1 =    -17.973 +j   0.28262
SOURCEBUS     2           19.746 /_   71.3 =     6.3152 +j    18.709
SOURCEBUS     3           22.284 /_  -58.5 =     11.658 +j   -18.991
------------
SOURCEBUS     0           17.976 /_   -0.9 =     17.973 +j  -0.28262
SOURCEBUS     0           19.746 /_ -108.7 =    -6.3152 +j   -18.709
SOURCEBUS     0           22.284 /_  121.5 =    -11.658 +j    18.991

ELEMENT = "Transformer.SUB"
SOURCEBUS     1           17.976 /_   -0.9 =     17.973 +j  -0.28262
SOURCEBUS     2           19.746 /_ -108.7 =    -6.3152 +j   -18.709
SOURCEBUS     3           22.284 /_  121.5 =    -11.658 +j    18.991
SOURCEBUS     0                0 /_    0.0 =          0 +j         0
SOURCEBUS Resid      8.2318E-011 /_   45.0 =   5.8208E-011 +j 5.8208E-011
------------
650           1           594.26 /_  151.3 =    -521.28 +j    285.33
650           2           434.75 /_   38.7 =     339.31 +j     271.8
650           3           625.08 /_  -86.6 =     36.931 +j   -623.99
650           0           159.71 /_   24.7 =     145.04 +j    66.862
650       Resid      5.9861E-009 /_   13.5 =   5.8208E-009 +j 1.397E-009

ELEMENT = "Transformer.REG1"
650           1           594.26 /_  -28.7 =     521.28 +j   -285.33
650           0           594.26 /_  151.3 =    -521.28 +j    285.33
------------
RG60          1           562.61 /_  151.3 =    -493.51 +j    270.13
RG60          0           562.61 /_  -28.7 =     493.51 +j   -270.13

ELEMENT = "Transformer.REG2"
650           2           434.75 /_ -141.3 =    -339.31 +j    -271.8
650           0           434.75 /_   38.7 =     339.31 +j     271.8
------------
RG60          2           419.03 /_   38.7 =     327.04 +j    261.98
RG60          0           419.03 /_ -141.3 =    -327.04 +j   -261.98

ELEMENT = "Transformer.REG3"
650           3           625.08 /_   93.4 =    -36.931 +j    623.99
650           0           625.08 /_  -86.6 =     36.931 +j   -623.99
------------
RG60          3           591.79 /_  -86.6 =     34.965 +j   -590.76
RG60          0           591.79 /_   93.4 =    -34.964 +j    590.76

ELEMENT = "Transformer.XFM1"
633           1           81.898 /_  -37.8 =     64.722 +j   -50.183
633           2           61.931 /_ -159.1 =    -57.873 +j   -22.049
633           3           63.576 /_   80.4 =     10.605 +j    62.685
633           0           19.894 /_  151.3 =    -17.454 +j    9.5472
633       Resid      1.1251E-006 /_    4.4 =   1.1218E-006 +j 8.642E-008
------------
634           1           709.78 /_  142.2 =    -560.92 +j    434.92
634           2           536.73 /_   20.9 =     501.56 +j    191.09
634           3           550.99 /_  -99.6 =    -91.906 +j   -543.27
634           0           172.42 /_  -28.7 =     151.27 +j   -82.743
634       Resid      1.0818E-005 /_   -4.8 =   1.0779E-005 +j -9.1041E-007

ELEMENT = "Capacitor.CAP1"
675           1           81.295 /_   84.4 =      7.966 +j    80.904
675           2           86.822 /_  -32.6 =      73.17 +j   -46.736
675           3           80.186 /_ -154.0 =    -72.068 +j   -35.155
675       Resid            9.121 /_  173.8 =     -9.0675 +j   0.98642
------------
675           0           81.295 /_  -95.6 =     -7.966 +j   -80.904
675           0           86.822 /_  147.4 =     -73.17 +j    46.736
675           0           80.186 /_   26.0 =     72.068 +j    35.155
675       Resid            9.121 /_   -6.2 =      9.0675 +j  -0.98642

ELEMENT = "Capacitor.CAP2"
611           3           40.064 /_ -154.3 =    -36.089 +j   -17.398
------------
611           0           40.064 /_   25.7 =     36.089 +j    17.398

ELEMENT = "Line.650632"
RG60          1           562.61 /_  -28.7 =     493.51 +j   -270.13
RG60          2           419.03 /_ -141.3 =    -327.04 +j   -261.98
RG60          3           591.79 /_   93.4 =    -34.965 +j    590.76
RG60      Resid           143.99 /_ -156.0 =     -131.51 +j   -58.651
------------
632           1           562.61 /_  151.3 =    -493.51 +j    270.14
632           2           419.03 /_   38.7 =     327.04 +j    261.97
632           3            591.8 /_  -86.6 =     34.964 +j   -590.76
632       Resid           143.99 /_   24.0 =      131.51 +j    58.651

ELEMENT = "Line.632670"
632           1           481.92 /_  -27.2 =     428.79 +j   -219.95
632           2           218.05 /_ -135.2 =    -154.81 +j   -153.57
632           3           480.31 /_   99.6 =    -79.903 +j    473.62
632       Resid           218.38 /_ -152.7 =     -194.08 +j    -100.1
------------
670           1           481.92 /_  152.8 =    -428.79 +j    219.95
670           2           218.05 /_   44.8 =     154.81 +j    153.57
670           3           480.31 /_  -80.4 =     79.903 +j   -473.62
670       Resid           218.38 /_   27.3 =      194.08 +j     100.1

ELEMENT = "Line.670671"
670           1           473.79 /_  -27.0 =     422.01 +j   -215.39
670           2           188.82 /_ -132.6 =     -127.7 +j    -139.1
670           3           424.94 /_  101.3 =    -82.944 +j    416.77
670       Resid           220.35 /_ -163.6 =     -211.36 +j   -62.284
------------
671           1           473.79 /_  153.0 =    -422.01 +j    215.39
671           2           188.82 /_   47.4 =      127.7 +j     139.1
671           3           424.94 /_  -78.7 =     82.943 +j   -416.77
671       Resid           220.35 /_   16.4 =      211.36 +j    62.284

ELEMENT = "Line.671680"
671           1        0.0005723 /_   85.7 =  4.3057E-005 +j 0.00057068
671           2       0.00059753 /_  -32.9 =  0.00050157 +j -0.00032476
671           3       0.00057208 /_ -154.5 =  -0.00051632 +j -0.00024634
671       Resid       2.831E-005 /_  179.1 =   -2.8306E-005 +j 4.265E-007
------------
680           1      4.8978E-012 /_  111.8 =  -1.819E-012 +j 4.5475E-012
680           2      4.6375E-012 /_  168.7 =  -4.5475E-012 +j 9.0949E-013
680           3       3.638E-012 /_  -90.0 =          0 +j -3.638E-012
680       Resid      6.6212E-012 /_  -15.9 =   6.3665E-012 +j -1.819E-012

ELEMENT = "Line.632633"
632           1           81.898 /_  -37.8 =     64.722 +j   -50.183
632           2            61.93 /_ -159.1 =    -57.872 +j   -22.049
632           3           63.576 /_   80.4 =     10.604 +j    62.685
632       Resid           19.894 /_  151.3 =     -17.454 +j    9.5472
------------
633           1           81.898 /_  142.2 =    -64.722 +j    50.183
633           2           61.931 /_   20.9 =     57.873 +j    22.049
633           3           63.576 /_  -99.6 =    -10.605 +j   -62.685
633       Resid           19.894 /_  -28.7 =      17.454 +j   -9.5472

ELEMENT = "Line.632645"
632           3           64.377 /_   57.8 =     34.335 +j    54.456
632           2           143.31 /_ -142.9 =    -114.36 +j   -86.358
632       Resid           86.154 /_   21.7 =       80.03 +j    31.902
------------
645           3           64.377 /_ -122.2 =    -34.335 +j   -54.456
645           2           143.31 /_   37.1 =     114.37 +j    86.358
645       Resid           86.154 /_ -158.3 =      -80.03 +j   -31.901

ELEMENT = "Line.645646"
645           3           64.377 /_   57.8 =     34.335 +j    54.456
645           2           64.377 /_ -122.2 =    -34.335 +j   -54.456
645       Resid       0.00011398 /_   88.8 =   2.4125E-006 +j 0.00011395
------------
646           3           64.377 /_ -122.2 =    -34.335 +j   -54.456
646           2           64.377 /_   57.8 =     34.335 +j    54.456
646       Resid      6.5585E-012 /_  146.3 =   -5.457E-012 +j 3.638E-012

ELEMENT = "Line.692675"
692           1           206.85 /_   -5.5 =     205.89 +j   -19.979
692           2           68.508 /_  -55.9 =      38.39 +j   -56.741
692           3           125.93 /_  110.8 =    -44.681 +j    117.74
692       Resid           203.77 /_ -168.4 =      -199.6 +j   -41.018
------------
675           1           206.85 /_  174.4 =    -205.88 +j    20.011
675           2           68.477 /_  124.1 =    -38.362 +j    56.723
675           3           125.93 /_  -69.2 =     44.652 +j   -117.75
675       Resid           203.76 /_   11.6 =      199.59 +j    41.018

ELEMENT = "Line.671684"
671           1           62.697 /_  -39.2 =      48.59 +j   -39.622
671           3           71.157 /_  121.2 =    -36.823 +j    60.888
671       Resid           24.305 /_ -119.0 =     -11.767 +j   -21.266
------------
684           1           62.697 /_  140.8 =     -48.59 +j    39.622
684           3           71.157 /_  -58.8 =     36.823 +j   -60.888
684       Resid           24.305 /_   61.0 =      11.767 +j    21.266

ELEMENT = "Line.684611"
684           3           71.157 /_  121.2 =    -36.823 +j    60.888
------------
611           3           71.157 /_  -58.8 =     36.822 +j   -60.888

ELEMENT = "Line.684652"
684           1           62.697 /_  -39.2 =      48.59 +j   -39.622
------------
652           1           62.714 /_  140.8 =    -48.587 +j    39.654

ELEMENT = "Line.671692"
671           1           230.95 /_  -18.4 =      219.1 +j   -73.018
671           2           68.508 /_  -55.9 =      38.39 +j   -56.741
671           3           180.32 /_  108.7 =    -57.895 +j    170.78
671       Resid           203.77 /_ -168.4 =      -199.6 +j   -41.018
------------
692           1           230.95 /_  161.6 =     -219.1 +j    73.018
692           2           68.508 /_  124.1 =     -38.39 +j    56.741
692           3           180.32 /_  -71.3 =     57.895 +j   -170.78
692       Resid           203.77 /_   11.6 =       199.6 +j    41.018

= = = = = = = = = = = = = = = = = = =  = = = = = = = = = = =  = =

Power Conversion Elements

  Bus     Phase    Magnitude, A     Angle      (Real)   +j  (Imag)

ELEMENT = "Load.671"
671           1           185.39 /_  -33.7 =     154.31 +j   -102.75
671           2           185.39 /_ -153.6 =    -166.09 +j   -82.351
671           3           185.47 /_   86.4 =     11.781 +j     185.1

ELEMENT = "Load.634A"
634           1           709.76 /_  -37.8 =      560.9 +j   -434.93
634           0           709.76 /_  142.2 =     -560.9 +j    434.93

ELEMENT = "Load.634B"
634           2           536.74 /_ -159.1 =    -501.57 +j    -191.1
634           0           536.74 /_   20.9 =     501.57 +j     191.1

ELEMENT = "Load.634C"
634           3           550.96 /_   80.4 =     91.911 +j    543.24
634           0           550.96 /_  -99.6 =    -91.911 +j   -543.24

ELEMENT = "Load.645"
645           2           86.155 /_ -158.3 =     -80.03 +j   -31.902
645           0           86.155 /_   21.7 =      80.03 +j    31.902

ELEMENT = "Load.646"
646           2           64.377 /_ -122.2 =    -34.336 +j   -54.455
646           3           64.377 /_   57.8 =     34.336 +j    54.455

ELEMENT = "Load.692"
692           3           54.658 /_  104.0 =    -13.212 +j    53.037
692           1           54.658 /_  -76.0 =     13.212 +j   -53.037

ELEMENT = "Load.675A"
675           1           222.15 /_  -27.0 =     197.91 +j   -100.92
675           0           222.15 /_  153.0 =    -197.91 +j    100.92

ELEMENT = "Load.675B"
675           2           36.213 /_ -164.0 =    -34.809 +j   -9.9875
675           0           36.213 /_   16.0 =     34.809 +j    9.9875

ELEMENT = "Load.675C"
675           3           155.33 /_   79.8 =     27.418 +j     152.9
675           0           155.33 /_ -100.2 =    -27.418 +j    -152.9

ELEMENT = "Load.611"
611           3           78.285 /_   90.5 =   -0.73083 +j    78.281
611           0           78.285 /_  -89.5 =    0.73083 +j   -78.281

ELEMENT = "Load.652"
652           1           62.713 /_  -39.2 =     48.584 +j   -39.655
652           0           62.713 /_  140.8 =    -48.584 +j    39.655

ELEMENT = "Load.670A"
670           1           8.1791 /_  -33.9 =     6.7869 +j   -4.5647
670           0           8.1791 /_  146.1 =    -6.7869 +j    4.5647

ELEMENT = "Load.670B"
670           2           30.729 /_ -151.9 =    -27.108 +j   -14.472
670           0           30.729 /_   28.1 =     27.108 +j    14.472

ELEMENT = "Load.670C"
670           3           56.931 /_   86.9 =     3.0423 +j    56.849
670           0           56.931 /_  -93.1 =    -3.0423 +j   -56.849

