IEEE13Nodeckt_Power_elem_kVA.txt

CIRCUIT ELEMENT POWER FLOW

(Power Flow into element from indicated Bus)

Power Delivery Elements

  Bus     Phase     kW     +j   kvar         kVA         PF

ELEMENT = "Vsource.SOURCE"
SOURCEBUS     1       158.3 +j    -39.2      163.1      -0.9706
SOURCEBUS     2       137.6 +j     52.8      147.4       0.9336
SOURCEBUS     3        68.2 +j    -11.1       69.1      -0.9871
   TERMINAL TOTAL .   364.1 +j      2.5      364.1       1.0000
SOURCEBUS     0         0.0 +j      0.0        0.0       1.0000
SOURCEBUS     0         0.0 +j      0.0        0.0       1.0000
SOURCEBUS     0         0.0 +j      0.0        0.0       1.0000
   TERMINAL TOTAL .     0.0 +j      0.0        0.0       1.0000

ELEMENT = "Transformer.SUB"
SOURCEBUS     1      -158.3 +j     39.2      163.1      -0.9706
SOURCEBUS     2      -137.6 +j    -52.8      147.4       0.9336
SOURCEBUS     3       -68.2 +j     11.1       69.1      -0.9871
SOURCEBUS     0         0.0 +j      0.0        0.0       1.0000
   TERMINAL TOTAL .  -364.1 +j     -2.5      364.1       1.0000
650           1        96.9 +j    -45.0      106.9      -0.9069
650           2       183.9 +j     16.8      184.7       0.9958
650           3        83.3 +j     30.7       88.8       0.9382
650           0         0.0 +j      0.0        0.0       1.0000
   TERMINAL TOTAL .   364.1 +j      2.5      364.1       1.0000

ELEMENT = "Transformer.XFM1"
633           1        53.4 +j     37.0       65.0       0.8218
633           2        40.1 +j     30.2       50.2       0.7984
633           3        40.1 +j     30.2       50.2       0.7984
633           0         0.0 +j      0.0        0.0       1.0000
   TERMINAL TOTAL .   133.5 +j     97.5      165.3       0.8078
634           1       -53.2 +j    -36.5       64.5       0.8240
634           2       -39.9 +j    -29.9       49.9       0.8000
634           3       -39.9 +j    -29.9       49.9       0.8000
634           0         0.0 +j      0.0        0.0       1.0000
   TERMINAL TOTAL .  -133.0 +j    -96.4      164.2       0.8096

ELEMENT = "Capacitor.CAP1"
675           1        -0.0 +j   -203.7      203.7       0.0000
675           2        -0.0 +j   -206.5      206.5       0.0000
675           3         0.0 +j   -208.5      208.5       1.0000
   TERMINAL TOTAL .    -0.0 +j   -618.7      618.7       0.0000
675           0         0.0 +j      0.0        0.0       1.0000
675           0         0.0 +j      0.0        0.0       1.0000
675           0         0.0 +j      0.0        0.0       1.0000
   TERMINAL TOTAL .     0.0 +j      0.0        0.0       1.0000

ELEMENT = "Capacitor.CAP2"
611           3         0.0 +j   -105.7      105.7       1.0000
   TERMINAL TOTAL .     0.0 +j   -105.7      105.7       1.0000
611           0         0.0 +j      0.0        0.0       1.0000
   TERMINAL TOTAL .     0.0 +j      0.0        0.0       1.0000

ELEMENT = "Line.650632"
RG60          1       -97.0 +j     45.0      106.9      -0.9072
RG60          2      -184.1 +j    -17.0      184.9       0.9958
RG60          3       -83.4 +j    -30.8       88.9       0.9381
   TERMINAL TOTAL .  -364.5 +j     -2.8      364.5       1.0000
632           1        97.2 +j    -44.7      107.0      -0.9084
632           2       184.5 +j     18.4      185.5       0.9950
632           3        83.4 +j     31.1       89.0       0.9370
   TERMINAL TOTAL .   365.1 +j      4.8      365.1       0.9999

ELEMENT = "Line.632670"
632           1      -150.6 +j      7.6      150.8      -0.9987
632           2      -334.4 +j    -90.4      346.4       0.9653
632           3      -150.2 +j   -107.2      184.5       0.8141
   TERMINAL TOTAL .  -635.3 +j   -190.0      663.1       0.9581
670           1       150.8 +j     -7.5      151.0      -0.9988
670           2       334.9 +j     92.3      347.4       0.9641
670           3       150.2 +j    107.6      184.8       0.8131
   TERMINAL TOTAL .   636.0 +j    192.3      664.4       0.9572

ELEMENT = "Line.670671"
670           1      -156.5 +j      4.2      156.5      -0.9996
670           2      -356.9 +j   -104.9      372.0       0.9594
670           3      -189.1 +j   -130.2      229.6       0.8237
   TERMINAL TOTAL .  -702.5 +j   -230.9      739.4       0.9500
671           1       156.7 +j     -4.0      156.8      -0.9997
671           2       358.2 +j    108.9      374.4       0.9568
671           3       189.2 +j    131.6      230.5       0.8209
   TERMINAL TOTAL .   704.2 +j    236.5      742.9       0.9480

ELEMENT = "Line.671680"
671           1        -0.0 +j     -0.0        0.0       0.0028
671           2         0.0 +j     -0.0        0.0      -0.0019
671           3         0.0 +j     -0.0        0.0      -0.0008
   TERMINAL TOTAL .     0.0 +j     -0.0        0.0      -0.0000
680           1         0.0 +j     -0.0        0.0      -0.0057
680           2         0.0 +j      0.0        0.0       0.9177
680           3        -0.0 +j     -0.0        0.0       0.5424
   TERMINAL TOTAL .     0.0 +j     -0.0        0.0      -0.3593

ELEMENT = "Line.632633"
632           1        53.5 +j     37.1       65.1       0.8216
632           2        40.1 +j     30.2       50.2       0.7982
632           3        40.1 +j     30.2       50.2       0.7984
   TERMINAL TOTAL .   133.6 +j     97.6      165.5       0.8076
633           1       -53.4 +j    -37.0       65.0       0.8218
633           2       -40.1 +j    -30.2       50.2       0.7984
633           3       -40.1 +j    -30.2       50.2       0.7984
   TERMINAL TOTAL .  -133.5 +j    -97.5      165.3       0.8078

ELEMENT = "Line.632645"
632           3        26.7 +j     45.8       53.1       0.5040
632           2       109.8 +j     41.8      117.5       0.9347
   TERMINAL TOTAL .   136.5 +j     87.6      162.2       0.8417
645           3       -26.7 +j    -45.8       53.0       0.5039
645           2      -109.5 +j    -41.5      117.1       0.9351
   TERMINAL TOTAL .  -136.2 +j    -87.3      161.8       0.8419

ELEMENT = "Line.645646"
645           3        26.7 +j     45.8       53.0       0.5039
645           2        53.0 +j     -0.0       53.0      -1.0000
   TERMINAL TOTAL .    79.7 +j     45.8       91.9       0.8673
646           3       -26.7 +j    -45.8       53.0       0.5037
646           2       -53.0 +j      0.1       53.0      -1.0000
   TERMINAL TOTAL .   -79.7 +j    -45.7       91.8       0.8673

ELEMENT = "Line.692675"
692           1      -343.6 +j   -140.0      371.0       0.9261
692           2      -487.7 +j   -185.1      521.6       0.9349
692           3      -420.0 +j   -136.3      441.5       0.9511
   TERMINAL TOTAL . -1251.2 +j   -461.4     1333.6       0.9382
675           1       344.6 +j    140.6      372.2       0.9259
675           2       490.1 +j    186.5      524.4       0.9346
675           3       421.3 +j    138.0      443.3       0.9503
   TERMINAL TOTAL .  1256.0 +j    465.2     1339.4       0.9378

ELEMENT = "Line.671684"
671           1        44.5 +j     29.8       53.5       0.8311
671           3        58.3 +j    -78.1       97.5      -0.5982
   TERMINAL TOTAL .   102.8 +j    -48.4      113.6      -0.9049
684           1       -44.4 +j    -29.7       53.5       0.8310
684           3       -58.2 +j     78.2       97.5      -0.5970
   TERMINAL TOTAL .  -102.7 +j     48.5      113.5      -0.9042

ELEMENT = "Line.684611"
684           3        58.2 +j    -78.2       97.5      -0.5970
   TERMINAL TOTAL .    58.2 +j    -78.2       97.5      -0.5970
611           3       -58.1 +j     78.3       97.5      -0.5957
   TERMINAL TOTAL .   -58.1 +j     78.3       97.5      -0.5957

ELEMENT = "Line.684652"
684           1        44.4 +j     29.7       53.5       0.8310
   TERMINAL TOTAL .    44.4 +j     29.7       53.5       0.8310
652           1       -44.3 +j    -29.8       53.4       0.8300
   TERMINAL TOTAL .   -44.3 +j    -29.8       53.4       0.8300

ELEMENT = "Line.671692"
671           1      -329.1 +j    -97.6      343.3       0.9587
671           2      -486.2 +j   -183.6      519.7       0.9355
671           3      -375.6 +j   -126.3      396.3       0.9479
   TERMINAL TOTAL . -1190.9 +j   -407.5     1258.7       0.9461
RG61          1       329.1 +j     97.6      343.3       0.9587
RG61          2       486.2 +j    183.6      519.7       0.9355
RG61          3       375.6 +j    126.3      396.3       0.9479
   TERMINAL TOTAL .  1190.9 +j    407.5     1258.7       0.9461

ELEMENT = "Transformer.TREG1_1"
650           1       -96.9 +j     45.0      106.9      -0.9069
650           0         0.0 +j      0.0        0.0       1.0000
   TERMINAL TOTAL .   -96.9 +j     45.0      106.9      -0.9069
RG60          1        97.0 +j    -45.0      106.9      -0.9072
RG60          0         0.0 +j      0.0        0.0       1.0000
   TERMINAL TOTAL .    97.0 +j    -45.0      106.9      -0.9072

ELEMENT = "Transformer.TREG1_2"
650           2      -183.9 +j    -16.8      184.7       0.9958
650           0         0.0 +j      0.0        0.0       1.0000
   TERMINAL TOTAL .  -183.9 +j    -16.8      184.7       0.9958
RG60          2       184.1 +j     17.0      184.9       0.9958
RG60          0         0.0 +j      0.0        0.0       1.0000
   TERMINAL TOTAL .   184.1 +j     17.0      184.9       0.9958

ELEMENT = "Transformer.TREG1_3"
650           3       -83.3 +j    -30.7       88.8       0.9382
650           0         0.0 +j      0.0        0.0       1.0000
   TERMINAL TOTAL .   -83.3 +j    -30.7       88.8       0.9382
RG60          3        83.4 +j     30.8       88.9       0.9381
RG60          0         0.0 +j      0.0        0.0       1.0000
   TERMINAL TOTAL .    83.4 +j     30.8       88.9       0.9381

ELEMENT = "Transformer.TREG2_1"
RG61          1      -329.1 +j    -97.6      343.3       0.9587
RG61          0         0.0 +j      0.0        0.0       1.0000
   TERMINAL TOTAL .  -329.1 +j    -97.6      343.3       0.9587
692           1       329.8 +j     98.3      344.1       0.9583
692           0         0.0 +j      0.0        0.0       1.0000
   TERMINAL TOTAL .   329.8 +j     98.3      344.1       0.9583

ELEMENT = "Transformer.TREG2_2"
RG61          2      -486.2 +j   -183.6      519.7       0.9355
RG61          0         0.0 +j      0.0        0.0       1.0000
   TERMINAL TOTAL .  -486.2 +j   -183.6      519.7       0.9355
692           2       487.7 +j    185.1      521.6       0.9349
692           0         0.0 +j      0.0        0.0       1.0000
   TERMINAL TOTAL .   487.7 +j    185.1      521.6       0.9349

ELEMENT = "Transformer.TREG2_3"
RG61          3      -375.6 +j   -126.3      396.3       0.9479
RG61          0         0.0 +j      0.0        0.0       1.0000
   TERMINAL TOTAL .  -375.6 +j   -126.3      396.3       0.9479
692           3       376.5 +j    127.2      397.4       0.9474
692           0         0.0 +j      0.0        0.0       1.0000
   TERMINAL TOTAL .   376.5 +j    127.2      397.4       0.9474

= = = = = = = = = = = = = = = = = = =  = = = = = = = = = = =  = =

Power Conversion Elements

  Bus     Phase     kW   +j  kvar         kVA         PF

ELEMENT = "Load.671"
671           1     127.9 +j   71.9      146.7       0.8718
671           2     128.0 +j   74.7      148.2       0.8635
671           3     128.1 +j   72.8      147.3       0.8695
  TERMINAL TOTAL  .   384.0 +j    219.4      442.2       0.8683

ELEMENT = "Load.634A"
634           1      53.2 +j   36.5       64.5       0.8242
634           0       0.0 +j    0.0        0.0       1.0000
  TERMINAL TOTAL  .    53.2 +j     36.5       64.5       0.8242

ELEMENT = "Load.634B"
634           2      39.9 +j   29.9       49.9       0.8000
634           0       0.0 +j    0.0        0.0       1.0000
  TERMINAL TOTAL  .    39.9 +j     29.9       49.9       0.8000

ELEMENT = "Load.634C"
634           3      39.9 +j   29.9       49.9       0.8000
634           0       0.0 +j    0.0        0.0       1.0000
  TERMINAL TOTAL  .    39.9 +j     29.9       49.9       0.8000

ELEMENT = "Load.645"
645           2      56.5 +j   41.6       70.2       0.8057
645           0       0.0 +j    0.0        0.0       1.0000
  TERMINAL TOTAL  .    56.5 +j     41.6       70.2       0.8057

ELEMENT = "Load.646"
646           2      53.0 +j   -0.1       53.0      -1.0000
646           3      26.7 +j   45.8       53.0       0.5037
  TERMINAL TOTAL  .    79.7 +j     45.7       91.8       0.8673

ELEMENT = "Load.692"
692           3      43.4 +j    9.2       44.4       0.9785
692           1      13.8 +j   41.7       43.9       0.3149
  TERMINAL TOTAL  .    57.2 +j     50.8       76.6       0.7478

ELEMENT = "Load.675A"
675           1     161.2 +j   63.1      173.1       0.9312
675           0       0.0 +j    0.0        0.0       1.0000
  TERMINAL TOTAL  .   161.2 +j     63.1      173.1       0.9312

ELEMENT = "Load.675B"
675           2      22.6 +j   19.9       30.2       0.7499
675           0       0.0 +j    0.0        0.0       1.0000
  TERMINAL TOTAL  .    22.6 +j     19.9       30.2       0.7499

ELEMENT = "Load.675C"
675           3      96.4 +j   70.5      119.4       0.8072
675           0       0.0 +j    0.0        0.0       1.0000
  TERMINAL TOTAL  .    96.4 +j     70.5      119.4       0.8072

ELEMENT = "Load.611"
611           3      58.1 +j   27.3       64.2       0.9048
611           0       0.0 +j    0.0        0.0       1.0000
  TERMINAL TOTAL  .    58.1 +j     27.3       64.2       0.9048

ELEMENT = "Load.652"
652           1      44.4 +j   29.8       53.4       0.8302
652           0       0.0 +j    0.0        0.0       1.0000
  TERMINAL TOTAL  .    44.4 +j     29.8       53.4       0.8302

ELEMENT = "Load.670A"
670           1       5.7 +j    3.3        6.6       0.8620
670           0       0.0 +j    0.0        0.0       1.0000
  TERMINAL TOTAL  .     5.7 +j      3.3        6.6       0.8620

ELEMENT = "Load.670B"
670           2      21.9 +j   12.6       25.3       0.8666
670           0       0.0 +j    0.0        0.0       1.0000
  TERMINAL TOTAL  .    21.9 +j     12.6       25.3       0.8666

ELEMENT = "Load.670C"
670           3      38.9 +j   22.6       45.0       0.8646
670           0       0.0 +j    0.0        0.0       1.0000
  TERMINAL TOTAL  .    38.9 +j     22.6       45.0       0.8646

ELEMENT = "Storage.N98"
675           1    -506.0 +j    0.1      506.0      -1.0000
675           2    -512.6 +j    0.0      512.6      -1.0000
675           3    -517.7 +j   -0.0      517.7       1.0000
675           0       0.0 +j    0.0        0.0       1.0000
  TERMINAL TOTAL  . -1536.3 +j      0.1     1536.3      -1.0000


Total Circuit Losses =   12.6 +j   18.7
